Version 4
SHEET 1 880 680
WIRE 496 -208 496 -240
WIRE 784 -208 496 -208
WIRE 448 -192 448 -240
WIRE 624 -192 448 -192
WIRE 400 -176 400 -240
WIRE 512 -176 400 -176
WIRE 512 -160 512 -176
WIRE 624 -160 624 -192
WIRE 240 -64 240 -240
WIRE 240 -64 32 -64
WIRE 304 -48 304 -240
WIRE 512 -48 512 -80
WIRE 512 -48 304 -48
WIRE 624 -48 624 -96
WIRE 624 -48 512 -48
WIRE 304 -32 304 -48
WIRE 32 64 32 -64
WIRE 144 64 32 64
WIRE 304 64 224 64
WIRE 352 64 304 64
WIRE 480 64 416 64
WIRE 592 64 480 64
WIRE 688 64 672 64
WIRE 688 112 688 64
WIRE 304 128 304 64
WIRE 480 128 480 64
WIRE 32 144 32 64
WIRE 784 192 784 -208
WIRE 784 192 736 192
WIRE 256 208 208 208
WIRE 32 240 32 224
WIRE 304 240 304 224
WIRE 304 240 32 240
WIRE 480 240 480 192
WIRE 480 240 304 240
WIRE 688 240 688 208
WIRE 688 240 480 240
WIRE 32 272 32 240
FLAG 32 272 0
FLAG 304 -32 0
FLAG 304 16 Boost_Converter
FLAG 208 208 Controller
IOPIN 208 208 In
SYMBOL ind 128 80 R270
WINDOW 0 32 56 VTop 2
WINDOW 3 5 56 VBottom 2
SYMATTR InstName L1
SYMBOL pmos 256 128 R0
SYMATTR InstName M1
SYMBOL diode 352 80 R270
WINDOW 0 32 32 VTop 2
WINDOW 3 0 32 VBottom 2
SYMATTR InstName D1
SYMBOL polcap 464 128 R0
SYMATTR InstName C1
SYMBOL pmos 736 112 M0
SYMATTR InstName M3
SYMBOL res 688 48 R90
WINDOW 0 0 56 VBottom 2
WINDOW 3 32 56 VTop 2
SYMATTR InstName Solonoid
SYMBOL LED 640 -160 M0
SYMATTR InstName D2
SYMBOL res 528 -176 M0
SYMATTR InstName Photoresistor
SYMBOL Arduino 272 -208 R0
SYMATTR InstName X1
SYMBOL Misc\\battery 32 128 M0
WINDOW 123 0 0 Left 0
WINDOW 39 0 0 Left 0
SYMATTR InstName V2
SYMATTR Value 9
RECTANGLE Normal 544 272 64 16 2
